test/test_files/validation_tests/case2869pegase_res.m
function mpc = case2869pegase_res
%CASE2869PEGASE_RES

%% MATPOWER Case Format : Version 2
mpc.version = '2';

%%-----  Power Flow Data  -----%%
%% system MVA base
mpc.baseMVA = 100;

%% bus data
%    bus_i    type    Pd    Qd    Gs    Bs    area    Vm    Va    baseKV    zone    Vmax    Vmin
mpc.bus = [
    3    1    151    48.8    0    4.69    0    1.01597693    -21.6805675    220    5    1.1    0.9;
    4    1    171.41    23.4    0    2.1    0    1.02599876    -6.89137794    220    5    1.1    0.9;
    10    1    134    24.7    0    12.44    0    1.03787976    -23.7586804    220    5    1.1    0.9;
    15    1    59.67    26.7    0    12.84    0    1.02427949    -48.1543485    220    4    1.1    0.9;
    21    1    161.2    39.3    0    30.71    0    1.03553759    -21.4052594    220    5    1.1    0.9;
    22    1    0    -0    0    0.85    0    1.03295295    -18.0980105    220    5    1.1    0.9;
    26    1    167.3    54.8    0    110.54    0    1.03285461    -3.22663392    380    5    1.1    0.9;
    29    1    152.9    49.4    0    27.65    0    0.997907866    -13.5726852    380    5    1.1    0.9;
    32    2    0    0    0    0    0    1.006206    -42.2819118    220    4    1.1    0.9;
    33    2    0    0    0    0    0    1.031909    -37.954584    220    4    1.1    0.9;
    38    1    42.75    12.8    0    13.3    0    1.02847711    27.5203391    220    8    1.1    0.9;
    39    2    0    0    0    0    0    1.005551    -37.5892686    150    10    1.1    0.9;
    42    1    20.82    7.9    0    26.89    0    1.04740384    -48.3901489    380    4    1.1    0.9;
    44    1    -0    0    0    7.27    0    1.04517894    -21.6542903    220    5    1.1    0.9;
    51    2    0    0    0    0    0    1.01198    -47.4308908    220    4    1.1    0.9;
    52    1    127.6    31.8    0    20.51    0    1.01380906    1.66347931    150    8    1.1    0.9;
    53    1    48.65    16.1    0    7.14    0    1.06053672    -9.07717356    220    5    1.1    0.9;
    58    1    0    0    0    2.31    0    0.996663482    -15.539313    380    5    1.1    0.9;
    59    1    119.2    20.7    0    3.31    0    1.03161714    -23.5817998    220    5    1.1    0.9;
    69    1    62.87    20.5    0    1.15    0    1.01238607    0.446867854    150    8    1.1    0.9;
    71    1    126.3    42.4    0    55.24    0    1.03801589    4.77550344    150    8    1.1    0.9;
    72    1    6.91    -4.6    0    5.75    0    1.00970737    -40.4609361    220    4    1.1    0.9;
    75    1    38.74    6.1    0    1.17    0    1.02442451    -52.4251689    220    4    1.1    0.9;
    76    1    22.13    10.7    0    14.21    0    1.02853899    27.5299571    220    8    1.1    0.9;
    77    1    -0    -0    0    0.73    0    1.01468888    -49.6971559    220    4    1.1    0.9;
    89    1    0    0    0.199111    4.530599    0    0.995990632    -2.01355332    380    2    1.1    0.9;
    90    1    363.25    115.39    0    3.95    0    1.04295741    -27.2303335    220    5    1.1    0.9;
    91    1    -0    0    0    0.02    0    1.01179011    2.75940697    150    8    1.1    0.9;
    96    1    -8.4    28.66    0    3.49    0    1.03481007    -15.4570085    220    5    1.1    0.9;
    113    1    -0    -0    0    6.532711    0    1.03054623    -13.8395094    380    5    1.1    0.9;
    115    1    0    -0    0    4.21    0    1.06556549    -19.206116    220    5    1.1    0.9;
    118    1    704.53    -35.33    0    13.102834    0    1.02192114    -11.2783497    380    5    1.1    0.9;
    124    2    0    0    0    0    0    1.079291    8.45462644    220    5    1.1    0.9;
    128    1    23.73    12.7    0    0.52    0    1.02017515    -15.4797791    220    5    1.1    0.9;
    130    1    -0    0    0.135375    47.750675    0    1.06297633    -46.5928137    380    10    1.1    0.9;
    132    1    0    -0    0    21.39    0    1.067846    -43.2572556    380    1    1.1    0.9;
    133    1    38.14    12.5    0    6.28    0    1.0197318    3.22374732    150    8    1.1    0.9;
    138    1    -75.38    7.8    0    29.9    0    1.07115948    -41.2789539    380    10    1.1    0.9;
    139    1    -764.34    66.91    0    33.47    0    1.00378007    18.9889101    380    8    1.1    0.9;
    140    1    0    0    0    4.14    0    1.02917977    18.9877001    220    8    1.1    0.9;
    143    1    0    0    0    0    0    1.01418949    6.0007325    150    8    1.1    0.9;
    145    1    38.34    5.6    0    7.64    0    1.04216934    -8.80549817    220    5    1.1    0.9;
    148    1    32.34    12    0    6.1    0    1.04168656    -7.89687518    220    5    1.1    0.9;
    150    2    0    0    0    0    0    1.062067    2.64567891    220    5    1.1    0.9;
    163    1    147.76    32.73    0    8.34    0    1.04260045    -10.4676853    220    5    1.1    0.9;
    164    1    0    -0    0    5.17    0    1.01600837    0.691258275    150    8    1.1    0.9;
    171    1    100.8    13.2    0    5.24    0    1.06377143    -24.7700698    220    5    1.1    0.9;
    172    1    111.7    10.96    0    4.22    0    1.01704326    -46.5080226    220    4    1.1    0.9;
    174    1    370.5    -17    0    9.91    0    1.07336509    -27.4462581    220    5    1.1    0.9;
    177    1    94.9    36.2    0    16.46    0    0.973373626    -42.6308832    220    10    1.1    0.9;
    179    2    0    0    0    0    0    1.048817    -49.1895358    380    4    1.1    0.9;
    184    1    -0    -0    0    2.42    0    1.04385077    -11.2713174    220    5    1.1    0.9;
    188    1    36.84    13.9    0    3.3    0    1.01828772    -19.1526892    220    5    1.1    0.9;
    194    2    0    0    0    0    0    1.029584    14.378265    150    8    1.1    0.9;
    195    1    73.14    21.55    0    8.52    0    1.05318992    -8.50311513    220    5    1.1    0.9;
    196    1    0    -0    0    12.48    0    1.07423707    -25.7598076    220    5    1.1    0.9;
    198    1    39.74    11.8    0    1.44    0    1.01590126    -15.7549161    220    5    1.1    0.9;
    199    1    86.8    28.4    0    1.34    0    1.01183769    1.92681916    150    8    1.1    0.9;
    201    2    0    0    0    0    0    1.024675    -50.6529557    220    4    1.1    0.9;
    205    1    46.15    18.2    0    1.29    0    1.00914883    6.60398434    150    8    1.1    0.9;
    207    1    321.98    84.4    0    1.34    0    1.02784251    -12.8158796    220    5    1.1    0.9;
    211    1    75.28    19.2    0    1.9    0    1.0325242    14.7689675    110    8    1.1    0.9;
    216    1    155.6    54.7    0    2.21    0    1.03856289    -24.1374062    220    5    1.1    0.9;
    217    1    105.2    0.1    0    7.36    0    1.03492754    -2.40617295    220    5    1.1    0.9;
    218    1    69.83    15.12    0    2.23    0    1.04250006    -13.0222012    220    5    1.1    0.9;
    221    2    0    0    0    0    0    0.996091    -16.1648392    380    5    1.1    0.9;
    225    1    0    0    0    1.15    0    1.0625275    -19.5976231    220    5    1.1    0.9;
    228    1    -23.43    57.4    0    0    0    1.04447674    -6.44350307    150    2    1.1    0.9;
    230    1    152.07    22.52    0    7.87    0    1.00700086    -46.2644175    220    4    1.1    0.9;
    231    1    -0.13    -1    0    0    0    1.01976772    24.3144198    110    8    1.1    0.9;
    236    1    45.85    7    0    1.05    0    1.02885493    -53.4704744    220    4    1.1    0.9;
    243    1    0    -0.01    0    13.49    0    1.01715298    18.3622095    150    8    1.1    0.9;
    244    1    -0    -0    0    0.68    0    1.01893476    6.49301961    150    8    1.1    0.9;
    249    1    -0    -0    0    26.3    0    1.00539528    -42.2799601    220    4    1.1    0.9;
    257    1    113.9    24.5    0    6.72    0    1.03409217    -45.5514823    220    4    1.1    0.9;
    261    1    -0    0    0    1.29    0    1.05686021    -45.0706322    380    10    1.1    0.9;
    264    1    38.74    9    0    0.57    0    1.01505052    -46.3077713    220    4    1.1    0.9;
    266    1    0    -0    0    140.96    0    1.05975078    -41.7927632    380    4    1.1    0.9;
    267    1    103.8    2.7    0    3.33    0    1.01627504    -50.8873472    220    4    1.1    0.9;
    268    1    -0.13    -1    0    0    0    1.04665503    27.6802425    220    8    1.1    0.9;
    271    1    96.7    26.8    0    0    0    1.04001127    -6.76871875    150    2    1.1    0.9;
    275    1    102.1    25.3    0    1.11    0    1.01342218    2.71942187    150    8    1.1    0.9;
    280    1    119.6    29.6    0    5.34    0    1.03311902    -10.8678913    220    5    1.1    0.9;
    281    1    -0    -0    0    18.07    0    1.03506245    14.5979502    380    8    1.1    0.9;
    283    1    27.33    11.9    0    1.17    0    1.03663693    -11.4991546    220    5    1.1    0.9;
    284    1    191.2    -3.4    0    19.21    0    1.02394001    -48.2064735    220    4    1.1    0.9;
    292    1    13.82    1.4    0    0.7    0    1.04761128    -14.566531    220    5    1.1    0.9;
    297    1    23.73    9.4    0    1.45    0    1.02594734    6.01795741    150    8    1.1    0.9;
    299    2    0    0    0    0    0    1.046197    -45.6601994    380    4    1.1    0.9;
    304    1    2.2    0.5    0    0.21    0    0.994430235    -53.6870429    150    10    1.1    0.9;
    305    1    103    12    0    0.63    0    1.06585917    -32.1964904    220    5    1.1    0.9;
    306    1    -0    0    0    4.76    0    1.02963235    -18.2302323    220    5    1.1    0.9;
    311    1    42.05    17.2    0    1.31    0    1.00332679    0.356131086    150    8    1.1    0.9;
    312    1    -0.16    -2.91    0    0.43    0    1.05576176    13.053606    110    8    1.1    0.9;
    314    1    163.1    46.3    0    10.6    0    1.00109905    -15.7117627    220    5    1.1    0.9;
    315    1    -0    -0    0    2.13    0    1.02685837    -35.8303969    220    10    1.1    0.9;
    317    1    -0    -0    0.045946    -1.82203    0    1.01774021    4.70062681    380    2    1.1    0.9;
    322    1    303.8    85.4    0    3.63    0    0.963930206    -44.1589963    220    10    1.1    0.9;
    326    1    0    0    0    0    0    1.04678796    27.727126    220    8    1.1    0.9;
    333    1    524.5    43    0    6.85    0    1.01322082    -41.7993318    220    5    1.1    0.9;
    338    2    0    0    0    0    0    1.049578    -6.03113281    220    5    1.1    0.9;
    344    1    372.8    147.5    0    27.73    0    1.02295853    -0.121073076    150    8    1.1    0.9;
    346    1    197.5    48.3    0    0.71    0    1.0394057    -20.8366393    220    5    1.1    0.9;
    349    1    -0    0    0    15.15    0    1.04737297    9.84295378    150    8    1.1    0.9;
    350    1    110.4    26.2    0    5.62    0    1.04293513    -23.7536264    220    5    1.1    0.9;
    351    1    -0.15    -1.93    0    0    0    1.0280358    19.7182393    220    8    1.1    0.9;
    352    2    0    0    0    0    0    1.054691    0.893065384    380    5    1.1    0.9;
    360    1    35.54    11.5    0    3.65    0    1.04850811    12.7736205    110    8    1.1    0.9;
    367    1    65.17    -51.5    0    4.85    0    1.07107553    -23.0364562    220    5    1.1    0.9;
    369    1    -0    0    0    3.78    0    1.04519824    14.7650801    220    8    1.1    0.9;
    370    1    56.76    23.2    0    0.49    0    1.00062272    0.1646931    150    8    1.1    0.9;
    377    1    -0.18    -1    0    0    0    1.02163394    11.7214466    150    8    1.1    0.9;
    380    1    -95.71    -2.8    0    7.25    0    1.00431439    -32.6431596    220    10    1.1    0.9;
    385    1    -0    -0    0    105.84    0    1.0450629    -49.0782389    380    4    1.1    0.9;
    387    1    -0.19    -4.38    0    0    0    1.04047696    7.98983546    150    8    1.1    0.9;
    389    2    0    0    0    0    0    1.020856    -40.5947532    150    10    1.1    0.9;
    392    1    134.1    34.2    0    0.75    0    1.00605857    0.379243211    150    8    1.1    0.9;
    395    1    -0    -0    0    7.85    0    1.03417177    15.8903967    380    8    1.1    0.9;
    401    1    56.5    36.29    0    3.08    0    1.028209    -13.9911148    220    5    1.1    0.9;
    408    1    129.1    7.4    0    0.04    0    1.04148467    -10.993487    220    5    1.1    0.9;
    410    1    170.89    50.38    0    6.44    0    1.03544172    -26.3760277    220    5    1.1    0.9;
    413    2    0    0    0    0    0    1.052152    -6.01392279    220    5    1.1    0.9;
    415    1    4.71    0.7    0    11.39    0    1.02939997    -51.4658648    220    4    1.1    0.9;
    416    1    70.68    13.5    0    6.96    0    1.04178694    -6.66223624    220    5    1.1    0.9;
    420    1    0    0    0    0    0    1.04981528    19.1707301    380    8    1.1    0.9;
    425    1    -0    0    0    2.72    0    1.00775313    8.6768618    380    1    1.1    0.9;
    426    1    123.1    6.5    0    3.25    0    1.04058504    -18.0736921    220    5    1.1    0.9;
    427    1    -0    0    0    1.24    0    1.07785506    -35.3828652    380    1    1.1    0.9;
    429    1    26.93    -22.4    0    4.95    0    1.01945382    -48.1081207    220    4    1.1    0.9;
    432    1    -0    -0    0    68.517663    0    1.04622607    2.50560702    380    5    1.1    0.9;
    440    2    0    0    0    0    0    1.029422    -35.9941484    220    4    1.1    0.9;
    441    1    -0    0    0.199768    27.888516    0    1.03716922    -51.6668378    380    10    1.1    0.9;
    442    2    0    0    0    0    0    1.013689    -45.9309404    220    4    1.1    0.9;
    444    1    0    -0    0    2.45    0    1.03742959    -11.556543    220    5    1.1    0.9;
    445    1    36.74    10.3    0    8.1    0    1.02228888    -44.2721087    220    4    1.1    0.9;
    449    1    0    0    0    29.42    0    1.0211895    -7.88954868    380    5    1.1    0.9;
    453    2    0    0    0    0    0    1.021096    -7.6952872    380    5    1.1    0.9;
    455    1    274.32    5.66    0    13.24    0    1.0439067    -30.4948916    220    5    1.1    0.9;
    472    1    336.2    131.6    0    64.01    0    1.04988129    8.66426734    150    8    1.1    0.9;
    473    1    -22.95    -3.72    0    14.34    0    1.02778854    -45.5678862    220    4    1.1    0.9;
    477    1    0    0    0    70.37    0    1.04950215    -41.7343742    380    4    1.1    0.9;
    481    1    -0    0    0    17.44    0    1.02424389    -47.7056798    220    4    1.1    0.9;
    483    1    57.26    15.6    0    3.43    0    1.0229704    -49.3511298    220    4    1.1    0.9;
    486    1    7.01    2    0    0.44    0    1.01540644    4.80516337    150    8    1.1    0.9;
    489    2    0    0    0    0    0    1.012805    -47.1154364    220    4    1.1    0.9;
    490    1    20.52    4    0    2.77    0    1.03634356    -22.4707845    220    5    1.1    0.9;
    496    1    -0    -0    0    10.04    0    1.01847494    11.8499991    150    8    1.1    0.9;
    500    1    144.4    35.5    0    7.66    0    1.03797454    -14.9853895    220    5    1.1    0.9;
    502    1    -0    0    0    1.96    0    1.04396996    -6.58731375    220    5    1.1    0.9;
    506    1    -0    0    0    0.4    0    1.0628975    -8.77667822    380    5    1.1    0.9;
    509    1    77.29    7    0    17.6    0    1.01603083    -59.9218712    220    4    1.1    0.9;
    513    1    57.46    17.1    0    1.61    0    1.03888705    -7.35102114    220    5    1.1    0.9;
    516    2    0    0    0    0    0    1.074804    -32.983703    220    5    1.1    0.9;
    519    1    207.2    9.4    0    8.77    0    1.02670521    -50.0876709    220    4    1.1    0.9;
    520    1    118.5    20.4    0    2.57    0    1.04888294    -26.8384507    220    5    1.1    0.9;
    523    1    189.9    74.7    0    26.2    0    1.04328426    8.01020395    150    8    1.1    0.9;
    527    1    277.7    45.4    0    0.7    0    1.01438832    -46.1375619    220    4    1.1    0.9;
    536    1    87.8    -1.4    0.079073    36.047349    0    1.05963818    -47.9356712    380    10    1.1    0.9;
    539    1    57.96    18.9    0    14.91    0    1.0139871    3.77048123    150    8    1.1    0.9;
    544    1    79.69    39.6    0    18.83    0    1.0390517    -51.4024278    380    10    1.1    0.9;
    548    1    30.93    8.9    0    0.45    0    1.03327562    17.3405331    110    8    1.1    0.9;
    549    1    0    -0    0    5.15    0    1.07194295    -10.5364519    220    5    1.1    0.9;
    550    1    0    -0    0    10    0    1.04004123    -45.177952    220    4    1.1    0.9;
    552    1    180.8    90.8    0    2.42    0    0.969251199    -42.8537047    150    10    1.1    0.9;
    554    1    0    -0    0    1.97    0    1.02193051    -20.4172413    220    5    1.1    0.9;
    556    1    16.52    9    0    1.17    0    1.0367822    -22.2187554    220    5    1.1    0.9;
    558    1    -0.18    -3.57    0    0    0    1.01716077    18.3622317    150    8    1.1    0.9;
    559    1    42.25    16.6    0    0    0    1.03526124    6.85437344    150    8    1.1    0.9;
    561    1    0    -0    0    0.32    0    1.0519049    -11.0912538    220    5    1.1    0.9;
    564    2    0    0    0    0    0    1.069692    -46.8139379    220    5    1.1    0.9;
    575    1    0    -0    0    0.67    0    1.04511711    -10.4853998    220    5    1.1    0.9;
    577    1    -0.13    -1    0    0    0    1.04590359    27.596744    220    8    1.1    0.9;
    579    1    17.32    6.6    0    16.52    0    1.02159404    -51.4684161    380    4    1.1    0.9;
    583    2    0    0    0    0    0    1.043394    -15.4918004    220    5    1.1    0.9;
    585    1    21.12    8.3    0    4.26    0    1.03267635    5.48719641    150    8    1.1    0.9;
    593    1    -0    0    0    29.2    0    1.0545847    11.774658    380    8    1.1    0.9;
    594    1    67.57    17    0    5.75    0    1.03830708    -8.26755717    220    5    1.1    0.9;
    595    1    47.55    5.3    0    7.59    0    1.02870146    -50.0847886    220    4    1.1    0.9;
    597    1    33.34    15.7    0    64.15    0    1.05911964    -47.4613376    380    4    1.1    0.9;
    601    1    140.6    42.6    0    5.71    0    1.04111942    -14.2183044    220    5    1.1    0.9;
    602    1    110.8    -8.8    0    3.15    0    1.0238073    -46.7202781    220    4    1.1    0.9;
    604    1    33.24    4.4    0    24.54    0    0.996749184    -12.326552    380    5    1.1    0.9;
    608    1    150.9    10.4    0    4.77    0    1.06743372    -32.2827873    220    5    1.1    0.9;
    609    1    -0    -0    0    5.67    0    1.02259634    -14.7282339    220    5    1.1    0.9;
    610    1    -0    0    0    0.91    0    0.990246365    -55.3821887    150    10    1.1    0.9;
    615    2    0    0    0    0    0    1.06611    -10.3873605    220    5    1.1    0.9;
    616    2    0    0    0    0    0    1.049295    -12.7982654    220    5    1.1    0.9;
    618    2    0    0    0    0    0    1.028233    -48.4293905    380    4    1.1    0.9;
    619    1    72.88    14.4    0    2.96    0    1.04526064    -24.8604176    220    5    1.1    0.9;
    621    1    21.42    8.1    0    7.38    0    1.01952659    -51.3919515    220    4    1.1    0.9;
    628    2    0    0    0    0    0    0.98494    -34.4768192    220    10    1.1    0.9;
    639    2    0    0    0    0    0    1.046182    -30.4097655    220    5    1.1    0.9;
    641    1    45.32    18.5    0    0.74    0    1.0382993    -13.7375059    220    5    1.1    0.9;
    642    2    0    0    0    0    0    1.036757    -49.8849624    380    4    1.1    0.9;
    643    1    15.52    6.3    0    0.6    0    1.00721019    0.626154818    150    8    1.1    0.9;
    649    1    40.94    19.2    0    5.2    0    1.02505187    -48.0167205    220    4    1.1    0.9;
    650    1    17.22    4.4    0    1.71    0    1.02062686    13.6055099    110    8    1.1    0.9;
    656    1    -0.15    -1.93    0    0    0    1.02800795    19.7199342    220    8    1.1    0.9;
    658    1    258.4    66.7    0    5.87    0    1.03352694    -17.1055099    220    5    1.1    0.9;
    659    1    -0    -0    0.174507    73.977052    0    1.01742196    4.61571971    380    2    1.1    0.9;
...
];

%% generator data
%    bus    Pg    Qg    Qmax    Qmin    Vg    mBase    status    Pmax    Pmin    Pc1    Pc2    Qc1min    Qc1max    Qc2min    Qc2max    ramp_agc    ramp_10    ramp_30    ramp_q    apf
mpc.gen = [
    32    8    37.915512    5.91    -4.56    1.006206    100    1    16.2    0    0    0    0    0    0    0    0    0    0    0    0;
    33    5.3    0.595316917    2.27    -1.08    1.031909    100    1    5.38    0    0    0    0    0    0    0    0    0    0    0    0;
    39    34.3    5.19995033    17.76    -7.14    1.005551    100    1    40    0    0    0    0    0    0    0    0    0    0    0    0;
    51    -144.5    4.88929252    5.48    -4.19    1.01198    100    1    100    -192.67    0    0    0    0    0    0    0    0    0    0    0;
    124    861.3    51.3273124    440.32    -172.59    1.079291    100    1    1000    333.33    0    0    0    0    0    0    0    0    0    0    0;
    150    67.29    -4.00795591    77.09    -22.54    1.062067    100    1    160    0    0    0    0    0    0    0    0    0    0    0    0;
    179    -179.2    110.785374    52.64    -51.72    1.048817    100    1    100    -238.93    0    0    0    0    0    0    0    0    0    0    0;
    194    268.6    43.3374987    130.19    -53.53    1.029584    100    1    300    100    0    0    0    0    0    0    0    0    0    0    0;
    201    5.2    5.32554823    2.27    -1.07    1.024675    100    1    5.37    0    0    0    0    0    0    0    0    0    0    0    0;
    221    -155.39    58.6712784    183.92    -65.3    0.996091    100    1    100    -207.18    0    0    0    0    0    0    0    0    0    0    0;
    299    975.9    131.003033    721.25    -258.71    1.046197    100    1    1600    533.33    0    0    0    0    0    0    0    0    0    0    0;
    338    83.7    1.69781707    55.54    -19.16    1.049578    100    1    120    0    0    0    0    0    0    0    0    0    0    0    0;
    352    1250.4    281.310472    926.35    -297.68    1.054691    100    1    2000    666.67    0    0    0    0    0    0    0    0    0    0    0;
    389    69    17.1630018    56.73    -17.84    1.020856    100    1    120    0    0    0    0    0    0    0    0    0    0    0    0;
    413    231    26.1115128    124.12    -49.84    1.052152    100    1    280    0    0    0    0    0    0    0    0    0    0    0    0;
    440    83.1    -0.810375856    55.73    -19.01    1.029422    100    1    120    0    0    0    0    0    0    0    0    0    0    0    0;
    442    -40.35    6.24487989    1.95    -0.93    1.013689    100    1    100    -53.8    0    0    0    0    0    0    0    0    0    0    0;
    453    260.1    57.8166386    257.23    -74.4    1.021096    100    1    540    0    0    0    0    0    0    0    0    0    0    0    0;
    489    -107.4    3.46531132    6.28    -4.82    1.012805    100    1    100    -143.2    0    0    0    0    0    0    0    0    0    0    0;
    516    539.4    188.634125    261.79    -106.67    1.074804    100    1    600    200    0    0    0    0    0    0    0    0    0    0    0;
    564    -51.67    8.14283392    18.47    -19.35    1.069692    100    1    100    -68.89    0    0    0    0    0    0    0    0    0    0    0;
    583    -270    7.18416852    17.88    -7.03    1.043394    100    1    100    -360    0    0    0    0    0    0    0    0    0    0    0;
    615    38.2    0.900094504    17.09    -7.79    1.06611    100    1    40    0    0    0    0    0    0    0    0    0    0    0    0;
    616    379.2    44.647753    217.9    -81.16    1.049295    100    1    480    160    0    0    0    0    0    0    0    0    0    0    0;
    618    670.3    -2.21604036    351.18    -139.11    1.028233    100    1    800    266.67    0    0    0    0    0    0    0    0    0    0    0;
    628    152.4    50.2816521    78.79    -31.69    0.98494    100    1    180    0    0    0    0    0    0    0    0    0    0    0    0;
    639    -46.2    127.24083    135.52    -38.9    1.046182    100    1    100    -61.6    0    0    0    0    0    0    0    0    0    0    0;
    642    63.33    -3.44924478    90.13    -93.03    1.036757    100    1    276.09    0    0    0    0    0    0    0    0    0    0    0    0;
    682    37.4    8.13352794    38.77    -11.06    1.065269    100    1    80    0    0    0    0    0    0    0    0    0    0    0    0;
    686    -21.65    -6.10645202    34.75    -34.26    1.018064    100    1    100    -28.86    0    0    0    0    0    0    0    0    0    0    0;
    698    274.8    12.4296223    129.94    -53.91    1.001541    100    1    300    100    0    0    0    0    0    0    0    0    0    0    0;
    709    16    60.3750387    22.23    -20.83    1.072146    100    1    65.3    0    0    0    0    0    0    0    0    0    0    0    0;
    739    465.7    74.7597155    212.97    -93.45    1.040583    100    1    500    166.67    0    0    0    0    0    0    0    0    0    0    0;
    749    198.88    6.63627528    105.69    -43.84    1.0548    100    1    240    0    0    0    0    0    0    0    0    0    0    0    0;
    751    65.9    7.05909148    136.94    -47.24    1.023645    100    1    300    0    0    0    0    0    0    0    0    0    0    0    0;
    757    116.7    121.566287    51.3    -23.41    1.016623    100    1    120    0    0    0    0    0    0    0    0    0    0    0    0;
    776    -111.4    10.1294896    18.16    -6.73    1.029038    100    1    100    -148.53    0    0    0    0    0    0    0    0    0    0    0;
    778    16.5    4.98476793    12.37    -9.36    1.051035    100    1    33.58    0    0    0    0    0    0    0    0    0    0    0    0;
    780    50.8    18.0324864    37.43    -12.32    1.006139    100    1    80    0    0    0    0    0    0    0    0    0    0    0    0;
    795    58.4    7.84605872    36.75    -13.04    1.039638    100    1    80    0    0    0    0    0    0    0    0    0    0    0    0;
    803    -89.2    11.9881693    74.03    -25.54    1.04396    100    1    100    -118.93    0    0    0    0    0    0    0    0    0    0    0;
    807    1597.5    -18.2995103    864.47    -360.97    1.057043    100    1    2000    666.67    0    0    0    0    0    0    0    0    0    0    0;
    823    1274.2    284.246086    926.68    -298.31    1.044347    100    1    2000    666.67    0    0    0    0    0    0    0    0    0    0    0;
    849    8.7    61.3227665    6.45    -4.91    1.041392    100    1    17.57    0    0    0    0    0    0    0    0    0    0    0    0;
    851    59.56    50.8903572    96.64    -27.81    1.006263    100    1    200    0    0    0    0    0    0    0    0    0    0    0    0;
    858    855.6    163.691541    440.67    -172.15    1.035299    100    1    1000    333.33    0    0    0    0    0    0    0    0    0    0    0;
    891    1702.8    655.510358    1097.41    -373.91    1.063198    100    1    2400    800    0    0    0    0    0    0    0    0    0    0    0;
    913    1249.4    749.977638    772.11    -269.94    1.032774    100    1    1700    566.67    0    0    0    0    0    0    0    0    0    0    0;
    916    230.2    -22.619346    134.45    -49.76    1.024009    100    1    300    0    0    0    0    0    0    0    0    0    0    0    0;
    930    679.6    -65.5545017    406.66    -144.75    1.063763    100    1    900    300    0    0    0    0    0    0    0    0    0    0    0;
    972    1221.2    406.851653    934.73    -291.52    1.068998    100    1    2000    666.67    0    0    0    0    0    0    0    0    0    0    0;
    976    21.3    35.4807795    36.02    -35.35    1.029847    100    1    107.83    0    0    0    0    0    0    0    0    0    0    0    0;
    1001    92.1    58.5529803    55.02    -19.81    1.073365    100    1    120    0    0    0    0    0    0    0    0    0    0    0    0;
    1002    171    16.3894573    89.55    -35.15    1.040649    100    1    200    0    0    0    0    0    0    0    0    0    0    0    0;
    1021    -179.3    17.2273441    58.34    -16.23    1.019135    100    1    100    -239.07    0    0    0    0    0    0    0    0    0    0    0;
    1030    164.94    17.4648694    71.66    -27.89    1.00979    100    1    400    100    0    0    0    0    0    0    0    0    0    0    0;
    1036    202.5    0.0378596837    137.39    -46.45    1.038657    100    1    300    100    0    0    0    0    0    0    0    0    0    0    0;
    1043    829.5    42.0686674    387.88    -163.4    1.029789    100    1    900    300    0    0    0    0    0    0    0    0    0    0    0;
    1083    91.8    10.5422087    54.91    -19.88    1.046149    100    1    120    0    0    0    0    0    0    0    0    0    0    0    0;
    1093    837    94.7825683    550.69    -185.15    1.026457    100    1    1200    400    0    0    0    0    0    0    0    0    0    0    0;
    1100    58.2    5.37407642    36.8    -13.01    1.045212    100    1    80    0    0    0    0    0    0    0    0    0    0    0    0;
    1102    -124.15    22.7324563    38.05    -11.59    1.051902    100    1    100    -165.54    0    0    0    0    0    0    0    0    0    0    0;
    1121    289.79    -10.4736046    158.2    -62.81    1.019674    100    1    360    0    0    0    0    0    0    0    0    0    0    0    0;
    1173    -124.7    4.2087557    1.85    -0.88    1.026125    100    1    100    -166.27    0    0    0    0    0    0    0    0    0    0    0;
    1174    26.8    6.38943211    18.61    -6.28    1.004865    100    1    40    0    0    0    0    0    0    0    0    0    0    0    0;
    1175    309.54    13.0834693    108.35    -39.12    1.040018    100    1    700    200    0    0    0    0    0    0    0    0    0    0    0;
    1237    1504.8    356.865275    906.61    -319.44    1.105045    100    1    2000    666.67    0    0    0    0    0    0    0    0    0    0    0;
    1241    46.13    -0.660946657    22.29    -20.98    1.021438    100    1    65.63    0    0    0    0    0    0    0    0    0    0    0    0;
    1251    837    89.6211343    550.69    -185.15    1.0265    100    1    1200    400    0    0    0    0    0    0    0    0    0    0    0;
    1271    -100.5    -6.14936446    32.54    -32.11    1.015573    100    1    100    -134    0    0    0    0    0    0    0    0    0    0    0;
    1295    -124.1    10.3833471    36.92    -12.88    1.038943    100    1    100    -165.47    0    0    0    0    0    0    0    0    0    0    0;
    1341    67.2    34.8824522    57.03    -17.62    1.030396    100    1    120    0    0    0    0    0    0    0    0    0    0    0    0;
    1354    -246.5    22.4748695    38.08    -11.73    1.04168    100    1    100    -328.67    0    0    0    0    0    0    0    0    0    0    0;
    1391    26.2    14.4952299    18.74    -6.17    1.028915    100    1    40    0    0    0    0    0    0    0    0    0    0    0    0;
    1399    -174.6    31.7747831    11.64    -10.2    1.052722    100    1    100    -232.8    0    0    0    0    0    0    0    0    0    0    0;
    1409    628.19    -57.1997252    338.66    -151.76    1.024907    100    1    800    266.67    0    0    0    0    0    0    0    0    0    0    0;
    1422    -101    16.6562037    18.09    -6.79    1.045292    100    1    100    -134.67    0    0    0    0    0    0    0    0    0    0    0;
    1436    49.4    2.91117227    37.72    -12.09    1.049261    100    1    80    0    0    0    0    0    0    0    0    0    0    0    0;
    1458    1588    -127.685529    895.23    -330.78    1.05352    100    1    2000    666.67    0    0    0    0    0    0    0    0    0    0    0;
    1475    783.9    -100.220817    394.45    -157    1.025403    100    1    900    300    0    0    0    0    0    0    0    0    0    0    0;
    1478    62.6    10.0784777    36.4    -13.44    1.046165    100    1    80    0    0    0    0    0    0    0    0    0    0    0    0;
    1498    5.2    66.16913    2.25    -1.06    1.078389    100    1    5.31    0    0    0    0    0    0    0    0    0    0    0    0;
    1570    121.4    3.91849017    93.16    -29.49    1.079057    100    1    200    66.67    0    0    0    0    0    0    0    0    0    0    0;
    1604    50.6    14.745933    37.66    -12.17    1.044277    100    1    80    0    0    0    0    0    0    0    0    0    0    0    0;
    1618    -136.6    83.1292383    21.27    -20.07    1.079319    100    1    100    -182.13    0    0    0    0    0    0    0    0    0    0    0;
    1642    50.4    84.993393    37.74    -12.11    1.031925    100    1    80    0    0    0    0    0    0    0    0    0    0    0    0;
    1680    1250.4    271.72013    928.89    -296.1    1.044209    100    1    2000    666.67    0    0    0    0    0    0    0    0    0    0    0;
    1685    62.7    16.58927    57.41    -17.22    1.005778    100    1    120    0    0    0    0    0    0    0    0    0    0    0    0;
    1697    -189    49.3925265    31.94    -31.24    1.041486    100    1    100    -252    0    0    0    0    0    0    0    0    0    0    0;
    1708    860.8    132.319422    439.37    -173.3    1.037844    100    1    1000    333.33    0    0    0    0    0    0    0    0    0    0    0;
    1721    28.1    1.66979406    18.52    -6.39    1.061536    100    1    40    0    0    0    0    0    0    0    0    0    0    0    0;
    1747    835.5    311.48707    387.67    -163.73    1.055274    100    1    900    300    0    0    0    0    0    0    0    0    0    0    0;
    1754    40    163.835147    16.99    -7.92    1.040804    100    1    41.06    0    0    0    0    0    0    0    0    0    0    0    0;
    1788    430.2    275.025689    272.25    -94.92    1.018729    100    1    600    200    0    0    0    0    0    0    0    0    0    0    0;
    1793    -90.3    1.56939236    34.64    -15.2    1.023406    100    1    100    -120.4    0    0    0    0    0    0    0    0    0    0    0;
    1794    1250.4    263.644321    926.35    -297.68    1.052726    100    1    2000    666.67    0    0    0    0    0    0    0    0    0    0    0;
    1808    -0.6    2.16293428    111.23    -38.16    1.047818    100    1    100    -0.8    0    0    0    0    0    0    0    0    0    0    0;
    1850    2.89    8.76325371    11.52    -10.09    1.020156    100    1    32.97    0    0    0    0    0    0    0    0    0    0    0    0;
    1851    15.6    -0.781815601    11.76    -8.89    1.0492    100    1    31.92    0    0    0    0    0    0    0    0    0    0    0    0;
    1852    -241.8    22.2053512    58.16    -16.52    1.056131    100    1    100    -322.4    0    0    0    0    0    0    0    0    0    0    0;
    1888    573.68    38.047329    396.02    -155.83    1.043102    100    1    912.78    312.78    0    0    0    0    0    0    0    0    0    0    0;
    1890    1526    129.24966    686.73    -294.62    1.050852    100    1    1600    533.33    0    0    0    0    0    0    0    0    0    0    0;
    1898    246    10.9315632    133.11    -51.25    1.077705    100    1    300    0    0    0    0    0    0    0    0    0    0    0    0;
    1909    -31.18    6.17758299    38.67    -11.1    1.021788    100    1    100    -41.57    0    0    0    0    0    0    0    0    0    0    0;
    1914    115.5    -35.0534088    160.36    -150.95    1.038338    100    1    472.16    39.35    0    0    0    0    0    0    0    0    0    0    0;
    1947    -17.02    37.1068896    2.05    -0.97    1.056511    100    1    100    -22.7    0    0    0    0    0    0    0    0    0    0    0;
    1959    31    1.61984571    18.14    -6.75    1.066953    100    1    40    0    0    0    0    0    0    0    0    0    0    0    0;
    1999    141.6    5.94583535    80.51    -30.07    1.080207    100    1    180    0    0    0    0    0    0    0    0    0    0    0    0;
    2030    576    166.105938    257    -110.85    1.072679    100    1    600    200    0    0    0    0    0    0    0    0    0    0    0;
    2035    855.6    164.066167    441.85    -171.27    1.034553    100    1    1000    333.33    0    0    0    0    0    0    0    0    0    0    0;
    2050    836.2    -27.9377604    962.2    -263.65    1.008592    100    1    2000    666.67    0    0    0    0    0    0    0    0    0    0    0;
    2085    176    26.8241939    88.39    -36.19    1.03273    100    1    200    0    0    0    0    0    0    0    0    0    0    0    0;
    2091    33.9    4.50300305    17.88    -7.04    1.026543    100    1    40    0    0    0    0    0    0    0    0    0    0    0    0;
    2096    1063.5    -14.9628315    522.74    -212.37    1.050714    100    1    1200    400    0    0    0    0    0    0    0    0    0    0    0;
    2107    1269.4    718.584953    661.9    -257.62    1.048234    100    1    1500    500    0    0    0    0    0    0    0    0    0    0    0;
    2150    498.4    98.9550481    266.17    -101.5    1.064827    100    1    600    200    0    0    0    0    0    0    0    0    0    0    0;
    2177    -121.3    37.2237716    58.35    -16.26    1.070558    100    1    100    -161.73    0    0    0    0    0    0    0    0    0    0    0;
    2193    7.9    7.96916196    7.47    -2.56    1.014181    100    1    16.12    0    0    0    0    0    0    0    0    0    0    0    0;
    2197    -53.29    38.1644028    19.51    -14.74    1.036195    100    1    100    -71.05    0    0    0    0    0    0    0    0    0    0    0;
    2206    204.3    27.2816082    137.29    -46.58    1.020141    100    1    300    100    0    0    0    0    0    0    0    0    0    0    0;
    2225    -83.5    3.69625445    2.27    -1.04    1.02967    100    1    100    -111.33    0    0    0    0    0    0    0    0    0    0    0;
    2236    -38.45    3.40920637    2.23    -1.07    1.023164    100    1    100    -51.26    0    0    0    0    0    0    0    0    0    0    0;
    2267    362    -75.1004831    228.16    -78.83    1.000857    100    1    500    166.67    0    0    0    0    0    0    0    0    0    0    0;
    2276    38.9    -21.0916619    41.67    -36.5    1.055141    100    1    119.3    0    0    0    0    0    0    0    0    0    0    0    0;
    2291    110.5    17.0334502    95.69    -28.93    1.068687    100    1    200    0    0    0    0    0    0    0    0    0    0    0    0;
    2335    431.2    239.51335    273.49    -94.1    1.040978    100    1    600    200    0    0    0    0    0    0    0    0    0    0    0;
    2359    78.2    26.0819773    34.35    -15.5    1.025004    100    1    80    0    0    0    0    0    0    0    0    0    0    0    0;
    2412    67.3    -77.8608003    134.54    -136.29    1.016849    100    1    409.09    0    0    0    0    0    0    0    0    0    0    0    0;
    2421    -320.4    18.6156672    37.39    -12.45    1.047704    100    1    100    -427.2    0    0    0    0    0    0    0    0    0    0    0;
    2425    -100.5    16.1837735    54.3    -20.49    1.043025    100    1    100    -134    0    0    0    0    0    0    0    0    0    0    0;
    2426    -43.2    -19.7894307    105.34    -99.02    1.040828    100    1    100    -57.6    0    0    0    0    0    0    0    0    0    0    0;
    2446    1367    294.408512    921.62    -304.73    1.053565    100    1    2000    666.67    0    0    0    0    0    0    0    0    0    0    0;
    2460    37.79    22.543121    38.01    -11.74    0.983266    100    1    80    0    0    0    0    0    0    0    0    0    0    0    0;
    2468    46.8    4.86249204    38.02    -11.81    1.049474    100    1    80    0    0    0    0    0    0    0    0    0    0    0    0;
    2481    31.8    14.1908861    39.12    -10.71    1.041748    100    1    80    0    0    0    0    0    0    0    0    0    0    0    0;
    2489    286.5    -16.2210499    162.4    -61.79    1.049212    100    1    360    0    0    0    0    0    0    0    0    0    0    0    0;
    2517    3.85    -6.1511833    78.13    -77.07    1.017237    100    1    234.52    0    0    0    0    0    0    0    0    0    0    0    0;
    2550    54.3    3.29419099    58.23    -16.49    1.050935    100    1    120    0    0    0    0    0    0    0    0    0    0    0    0;
    2572    411.2    79.7724188    276.19    -91.63    1.044905    100    1    600    200    0    0    0    0    0    0    0    0    0    0    0;
    2600    76.48    16.0097476    76.08    -23.59    1.041924    100    1    160    0    0    0    0    0    0    0    0    0    0    0    0;
    2627    1367    296.956542    921.52    -304.79    1.052984    100    1    2000    666.67    0    0    0    0    0    0    0    0    0    0    0;
    2642    1897    -74.9914144    848.76    -377.67    1.054923    100    1    2000    666.67    0    0    0    0    0    0    0    0    0    0    0;
    2653    41.92    39.3571618    51.94    -22.8    1.036409    100    1    120    0    0    0    0    0    0    0    0    0    0    0    0;
    2658    308.31    -5.53330164    124.68    -59.39    1.026597    100    1    700    200    0    0    0    0    0    0    0    0    0    0    0;
    2660    144.9    13.478747    79.69    -30.77    1.013897    100    1    180    0    0    0    0    0    0    0    0    0    0    0    0;
    2686    -72.9    -34.6580841    69.01    -69.9    1.020441    100    1    100    -97.2    0    0    0    0    0    0    0    0    0    0    0;
    2719    77.6    -14.7394677    70.15    -58.1    1.039499    100    1    196.72    0    0    0    0    0    0    0    0    0    0    0    0;
    2764    575.4    90.4767129    416.7    -134.5    1.05096    100    1    900    300    0    0    0    0    0    0    0    0    0    0    0;
    2786    1221.2    388.205868    934.81    -291.47    1.069288    100    1    2000    666.67    0    0    0    0    0    0    0    0    0    0    0;
    2797    -95.1    5.5366591    88.33    -36.33    1.044662    100    1    100    -126.8    0    0    0    0    0    0    0    0    0    0    0;
    2799    66.8    -1.1987184    77.91    -21.66    1.055463    100    1    160    0    0    0    0    0    0    0    0    0    0    0    0;
    2800    1048.2    -22.3370059    525.34    -209.84    1.030206    100    1    1200    400    0    0    0    0    0    0    0    0    0    0    0;
    2816    1250.4    295.871582    926.26    -297.74    1.054536    100    1    2000    666.67    0    0    0    0    0    0    0    0    0    0    0;
    2817    71.8    4.18023522    34.8    -14.94    0.991705    100    1    80    0    0    0    0    0    0    0    0    0    0    0    0;
    2841    80.7    -2.82235294    55.98    -18.76    1.079986    100    1    120    0    0    0    0    0    0    0    0    0    0    0    0;
    2842    31.6    6.13181677    18.19    -6.74    1.044122    100    1    40    0    0    0    0    0    0    0    0    0    0    0    0;
    2853    126    10.272589    72.02    -27.47    1.000604    100    1    160    0    0    0    0    0    0    0    0    0    0    0    0;
    2872    4.5    0.828638909    3.31    -2.54    1.060615    100    1    9.05    0    0    0    0    0    0    0    0    0    0    0    0;
    2878    8.95    -8.35055357    72.95    -68.71    1.05418    100    1    214.86    0    0    0    0    0    0    0    0    0    0    0    0;
    2886    60.9    12.4969523    57.69    -17.02    1.052878    100    1    120    0    0    0    0    0    0    0    0    0    0    0    0;
    2896    -223.4    8.9669749    1.52    -0.73    1.011629    100    1    100    -297.87    0    0    0    0    0    0    0    0    0    0    0;
    2902    20.9    1.5832849    19.19    -5.72    1.061022    100    1    40    0    0    0    0    0    0    0    0    0    0    0    0;
    2930    53.2    2.40851201    37.24    -12.54    1.049271    100    1    80    0    0    0    0    0    0    0    0    0    0    0    0;
    2934    3.4    0.467731773    2.51    -1.91    1.052968    100    1    6.83    0    0    0    0    0    0    0    0    0    0    0    0;
    2946    -222.1    16.0264706    1.83    -0.87    1.020023    100    1    100    -296.13    0    0    0    0    0    0    0    0    0    0    0;
    2985    46.6    -57.8000721    184.46    -132.67    1.05077    100    1    493.35    0    0    0    0    0    0    0    0    0    0    0    0;
    3018    162.5    -4.91405141    89.61    -34.82    1.043371    100    1    200    0    0    0    0    0    0    0    0    0    0    0    0;
    3028    855.7    161.475218    441.85    -171.27    1.034318    100    1    1000    333.33    0    0    0    0    0    0    0    0    0    0    0;
    3054    210.4    147.144053    167.72    -77.11    0.999852    100    1    400    133.33    0    0    0    0    0    0    0    0    0    0    0;
    3113    -20.3    33.3416304    22.39    -20.99    1.072644    100    1    100    -27.07    0    0    0    0    0    0    0    0    0    0    0;
    3114    38.6    4.63419917    17.33    -7.61    1.0681    100    1    40    0    0    0    0    0    0    0    0    0    0    0    0;
    3133    85.54    10.0218443    113.97    -35.56    1.061763    100    1    240    0    0    0    0    0    0    0    0    0    0    0    0;
    3134    -136.3    -5.0185579    70.25    -29.33    1.02503    100    1    100    -181.73    0    0    0    0    0    0    0    0    0    0    0;
    3150    -31.34    4.57868933    6.66    -5.1    1.017094    100    1    100    -41.79    0    0    0    0    0    0    0    0    0    0    0;
    3157    9    2.41506708    6.78    -5.13    1.023658    100    1    18.41    0    0    0    0    0    0    0    0    0    0    0    0;
    3163    33.9    -20.015513    67.92    -69.02    1.006379    100    1    206.86    0    0    0    0    0    0    0    0    0    0    0    0;
    3183    98.7    -2.93283218    53.7    -20.98    1.056991    100    1    120    0    0    0    0    0    0    0    0    0    0    0    0;
    3205    416.7    223.553487    243.61    -88.46    1.03763    100    1    540    0    0    0    0    0    0    0    0    0    0    0    0;
    3218    -107.4    16.6821063    36.79    -13    1.032146    100    1    100    -143.2    0    0    0    0    0    0    0    0    0    0    0;
    3233    13    0.239385278    178.47    -79.11    1.012423    100    1    420    0    0    0    0    0    0    0    0    0    0    0    0;
    3240    -42.3    -13.0524009    62.23    -51.37    1.051571    100    1    100    -56.4    0    0    0    0    0    0    0    0    0    0    0;
    3291    326.4    7.66184675    229    -77.02    1.027251    100    1    500    166.67    0    0    0    0    0    0    0    0    0    0    0;
    3306    861.3    134.521904    439.2    -173.43    1.069265    100    1    1000    333.33    0    0    0    0    0    0    0    0    0    0    0;
    3324    -26.48    21.7777703    38.13    -11.64    1.016523    100    1    100    -35.3    0    0    0    0    0    0    0    0    0    0    0;
    3334    -45.5    6.9342957    34.41    -15.34    1.03247    100    1    100    -60.67    0    0    0    0    0    0    0    0    0    0    0;
    3335    -600    2043.135    99999    -99999    1.08873    100    1    630    -630    0    0    0    0    0    0    0    0    0    0    0;
    3346    56.8    367.194639    37.1    -12.76    1.014746    100    1    80    0    0    0    0    0    0    0    0    0    0    0    0;
    3353    19.07    6.64747699    38.2    -11.61    1.047796    100    1    80    0    0    0    0    0    0    0    0    0    0    0    0;
    3364    44.5    -22.0125656    47.19    -41.44    1.055303    100    1    135.27    0    0    0    0    0    0    0    0    0    0    0    0;
    3390    2.4    19.327792    54.59    -20.19    1.041678    100    1    120    0    0    0    0    0    0    0    0    0    0    0    0;
    3416    171.3    38.3126824    76.43    -34.12    0.997085    100    1    180    0    0    0    0    0    0    0    0    0    0    0    0;
    3422    53.7    -2.85108901    58.19    -16.5    1.065868    100    1    120    0    0    0    0    0    0    0    0    0    0    0    0;
    3436    521    221.087886    550.97    -184.89    1.056276    100    1    1200    400    0    0    0    0    0    0    0    0    0    0    0;
    3492    -370.8    17.3915848    53.75    -21.08    1.04519    100    1    100    -494.4    0    0    0    0    0    0    0    0    0    0    0;
    3513    829.8    101.613527    387.88    -163.4    1.029628    100    1    900    300    0    0    0    0    0    0    0    0    0    0    0;
    3565    15.88    7.15899787    38.83    -10.97    1.079121    100    1    80    0    0    0    0    0    0    0    0    0    0    0    0;
    3580    539    187.774418    261.7    -107.36    1.075232    100    1    600    0    0    0    0    0    0    0    0    0    0    0    0;
    3582    -321.8    4.8724057    52.83    -52.04    1.045127    100    1    100    -429.07    0    0    0    0    0    0    0    0    0    0    0;
    3584    -88.4    1.93342443    19.8    -15.12    1.019651    100    1    100    -117.87    0    0    0    0    0    0    0    0    0    0    0;
    3585    50.8    18.0880945    37.43    -12.32    1.006097    100    1    80    0    0    0    0    0    0    0    0    0    0    0    0;
...
];

%% branch data
%    fbus    tbus    r    x    b    rateA    rateB    rateC    ratio    angle    status    angmin    angmax    Pf    Qf    Pt    Qt
mpc.branch = [
    5147    3097    0.0006    0.00616    0    823    0    0    0    0    1    -360    360    -82.0946    104.9853    82.1957    -103.9475;
    5147    8763    0.0005    0.0074    0    921    0    0    0    0    1    -360    360    82.0946    -86.2090    -82.0274    87.2037;
    427    5425    7e-05    0.00057    0    1711    0    0    0    0    1    -360    360    278.0766    60.4005    -278.0278    -60.0033;
    427    4704    6e-05    0.00056    0    1514    0    0    0    0    1    -360    360    -278.0766    -58.9599    278.1183    59.3494;
    5960    7431    0.003349    0.01656    0    0    0    0    0    0    1    -360    360    4.4464    2.2063    -4.4456    -2.2023;
    5960    3186    0.003409    0.016211    0    0    0    0    0    0    1    -360    360    -4.4464    0.6814    4.4470    -0.6783;
    4481    7431    0.003479    0.01586    0    0    0    0    0    0    1    -360    360    4.3453    2.2863    -4.3445    -2.2826;
    4481    3186    0.003099    0.017969    0    0    0    0    0    0    1    -360    360    -4.3453    0.5183    4.3459    -0.5150;
    5205    7833    0.00236    0.01418    0    553    0    0    0    0    1    -360    360    160.3278    5.1481    -159.7511    -1.6824;
    5205    7770    0.002169    0.015909    0    514    0    0    0    0    1    -360    360    -160.3278    -2.1581    160.8575    6.0430;
    5773    6542    0.00014    0.0012    0    0    0    0    0    0    1    -360    360    42.0050    18.5564    -42.0023    -18.5331;
    5773    7840    0.000211    0.001539    0    0    0    0    0    0    1    -360    360    -42.0050    -18.1652    42.0091    18.1949;
    5214    6542    0.000401    0.004901    0    0    0    0    0    0    1    -360    360    17.7468    8.6504    -17.7453    -8.6328;
    5214    7840    0.000219    0.00151    0    533    0    0    0    0    1    -360    360    -17.7468    -7.6938    17.7475    7.6990;
    2971    6069    0.00052    0.00407    0    1481    0    0    0    0    1    -360    360    -123.2961    133.9682    123.4711    -132.5986;
    2971    3445    0.00034    0.00502    0    1843    0    0    0    0    1    -360    360    123.2961    -122.5906    -123.1918    124.1312;
    7561    6069    0.00065    0.00698    0    1711    0    0    0    0    1    -360    360    326.5928    122.2674    -325.7994    -113.7467;
    7561    8825    0.00059    0.00806    0    1678    0    0    0    0    1    -360    360    -326.5928    -101.8050    327.2859    111.2731;
    7556    7058    0.00374    0.02095    0    800    0    0    0    0    1    -360    360    272.2003    -23.4334    -269.6529    37.7027;
    7556    4324    0.00511    0.019461    0    800    0    0    0    0    1    -360    360    -272.2003    26.8306    275.6887    -13.5452;
    132    2962    0.00064    0.00715    0    1481    0    0    0    0    1    -360    360    -240.5465    33.1517    240.8774    -29.4546;
    132    4393    0.00089    0.00712    0    1283    0    0    0    0    1    -360    360    240.5465    -8.7608    -240.0943    12.3785;
    5044    693    0.00048    0.00555    0    987    0    0    0    0    1    -360    360    -27.5698    -16.6020    27.5742    16.6531;
    5044    7860    0.00047    0.00566    0    1086    0    0    0    0    1    -360    360    27.5698    30.0968    -27.5628    -30.0129;
    6883    693    0.00046    0.00524    0    1053    0    0    0    0    1    -360    360    -30.0484    -18.0734    30.0534    18.1308;
    6883    7860    0.00052    0.00514    0    1053    0    0    0    0    1    -360    360    30.0484    32.0057    -30.0394    -31.9176;
    6494    4945    0.00029    0.00298    0    1613    0    0    0    0    1    -360    360    -513.3878    10.1290    514.0703    -3.1159;
    6494    6080    0.0003    0.00291    0    1514    0    0    0    0    1    -360    360    513.3878    -0.9418    -512.6821    7.7876;
    7146    7388    0.00042    0.02666    0    1185    0    0    0    0    1    -360    360    0.0000    0.0000    0.0000    0.0000;
    4735    5239    0.00058    0.00534    0    1876    0    0    0    0    1    -360    360    852.7352    -212.7961    -848.2368    254.2123;
    4735    3145    0.00054    0.00589    0    1843    0    0    0    0    1    -360    360    -852.7352    226.3310    856.9555    -180.2976;
    3615    8731    0.00036    0.00485    0    0    0    0    0    0    1    -360    360    549.5654    -56.8953    -548.5189    70.9948;
    3615    6246    0.00042    0.00415    0    0    0    0    0    0    1    -360    360    -549.5654    71.0814    550.7937    -58.9451;
    2549    7829    0.003349    0.02445    0    553    0    0    0    0    1    -360    360    99.7608    -32.1555    -99.4274    34.5894;
    2549    4951    0.003281    0.02493    0    553    0    0    0    0    1    -360    360    -99.7608    36.4154    100.0961    -33.8677;
    7004    3370    0    0.00046    0    757    0    0    0    0    1    -360    360    0.0000    0.0000    0.0000    0.0000;
    8381    4795    0.00053    0.00587    0    1777    0    0    0    0    1    -360    360    -315.5512    15.1159    316.0119    -10.0130;
    8381    5562    0.00055    0.00666    0    1711    0    0    0    0    1    -360    360    315.5512    5.4572    -315.0740    0.3209;
    3409    1716    0.00051    0.00614    0    0    0    0    0    0    1    -360    360    645.4686    -64.3733    -643.4242    88.9863;
    3409    6246    0.00043    0.00406    0    0    0    0    0    0    1    -360    360    -645.4686    81.5878    647.2027    -65.2156;
    1000    6145    0.002211    0.014419    0    438    0    0    0    0    1    -360    360    -34.2412    -1.0479    34.2662    1.2104;
    1000    3186    0.002169    0.013349    0    457    0    0    0    0    1    -360    360    34.2412    2.9218    -34.2166    -2.7704;
    6060    5289    0.00033    0.00101    0    823    0    0    0    0    1    -360    360    0.0000    93.5440    0.0249    -93.4678;
    7965    5289    0.00028    0.00104    0    757    0    0    0    0    1    -360    360    0.0000    92.2009    0.0205    -92.1247;
    4363    4507    0.00057    0.0071    0    1613    0    0    0    0    1    -360    360    595.6374    -83.8147    -593.6830    108.1590;
    4363    6246    0.00057    0.00697    0    1613    0    0    0    0    1    -360    360    -595.6374    103.5049    597.6117    -79.3627;
    425    7526    0.0001    0.00119    0    1810    0    0    0    0    1    -360    360    717.2741    79.8419    -716.7612    -73.7387;
    425    5674    0.0001    0.0013    0    1613    0    0    0    0    1    -360    360    -717.2741    -77.0796    717.7865    83.7414;
    4799    8581    9e-05    0.00121    0    1514    0    0    0    0    1    -360    360    221.7625    15.1421    -221.7190    -14.5566;
    4799    4337    0.0001    0.00134    0    1251    0    0    0    0    1    -360    360    -221.7625    -12.4670    221.8108    13.1145;
    4968    2154    0.00039    0.00474    0    1843    0    0    0    0    1    -360    360    516.3282    75.1405    -515.3657    -63.4424;
    4968    1747    0.00045    0.00467    0    1448    0    0    0    0    1    -360    360    -516.3282    -56.8620    517.4289    68.2851;
    7699    2154    0.00052    0.00567    0    1645    0    0    0    0    1    -360    360    385.9184    -124.3208    -385.1283    132.9357;
    7699    1689    0.00054    0.00667    0    1316    0    0    0    0    1    -360    360    -385.9184    145.5484    386.7675    -135.0609;
    3097    659    0.00073    0.00905    0    1185    0    0    0    0    1    -360    360    -210.3057    58.9567    210.6398    -54.8150;
    9024    4929    0.00192    0.02296    0    889    0    0    0    0    1    -360    360    -215.8595    56.5754    216.7651    -45.7460;
    1815    6542    0.01431    0.05899    0    0    0    0    0    0    1    -360    360    54.0726    -38.3328    -53.4766    40.7898;
    6542    1445    0.02607    0.07168    0    0    0    0    0    0    1    -360    360    -7.9370    57.9782    8.7590    -55.7181;
    6069    6833    0.00054    0.00465    0    1580    0    0    0    0    1    -360    360    274.9625    162.8165    -274.3973    -157.9491;
    6069    2268    0.00126    0.01124    0    1613    0    0    0    0    1    -360    360    -267.6682    -50.0948    268.6260    58.6392;
    6069    7180    0.00048    0.00527    0    1547    0    0    0    0    1    -360    360    263.7052    99.1965    -263.3146    -94.9081;
    6069    6293    0.00082    0.00938    0    1580    0    0    0    0    1    -360    360    -472.9213    -106.3124    474.8963    128.9046;
    1968    9192    0.00028    0.003502    0    0    0    0    0    0    1    -360    360    -125.0505    -25.8779    125.0934    26.4145;
    1968    3493    0.691467    4.414711    0    0    0    0    0    0    1    -360    360    -0.4098    -0.0303    0.4109    0.0373;
    1968    955    0.02004    0.0916    0    0    0    0    0    0    1    -360    360    -4.8847    25.7773    5.0143    -25.1849;
    1968    228    0.841911    4.768444    0    0    0    0    0    0    1    -360    360    -1.0749    -0.0638    1.0841    0.1158;
    1968    6826    0.026    0.08948    0    0    0    0    0    0    1    -360    360    -57.9376    -24.0906    58.8995    27.4010;
    1968    8964    0.002631    0.011889    0    299    0    0    0    0    1    -360    360    288.3134    -7.1093    -286.2571    16.4016;
    1968    5776    0.7232    1.944    0    0    0    0    0    0    1    -360    360    -2.8676    -0.6006    2.9260    0.7574;
    9192    955    0.156169    0.546756    0    0    0    0    0    0    1    -360    360    0.2349    4.3034    -0.2077    -4.2082;
    9192    6826    0.168809    0.580622    0    0    0    0    0    0    1    -360    360    -8.1817    -3.7479    8.3098    4.1887;
    9192    8964    0.019222    0.068209    0    0    0    0    0    0    1    -360    360    55.8027    -3.7581    -55.2390    5.7583;
    8574    1616    0.00039    0.00386    0    1415    0    0    0    0    1    -360    360    -151.1318    -102.6999    151.2624    103.9923;
...